817

H 11.914196 15.824289 8.322765
Al 11.050646 13.748989 8.225677
O 10.956939 15.544243 8.325056
O 12.680506 13.789104 8.690966
O 10.789834 13.295247 6.638718
O 9.936927 13.097568 9.314528
Si 9.723309 16.666465 8.718846
Si 13.889989 12.682468 8.824661
Si 9.758592 12.402260 10.797928
Si 9.787084 12.377210 5.726424
O 8.208110 16.147260 8.555980
Si 6.928920 15.276260 8.801840
O 10.099860 17.770800 7.677860
Si 9.768630 18.262050 6.182080
O 10.099860 17.074000 10.196860
Si 9.768630 18.262050 11.220080
O 15.163940 13.548190 8.601830
Si 16.706440 13.743300 8.287960
O 13.858420 11.412500 7.808340
Si 13.858420 10.858540 6.282840
O 13.858420 12.088400 10.301150
Si 13.858420 10.858540 11.320840
O 10.099860 10.821960 10.904700
Si 11.018710 9.552040 11.220080
O 10.677780 13.213730 11.859900
Si 11.010400 13.743300 13.325960
O 8.234440 12.586610 11.120830
Si 6.928920 13.480250 11.338470
O 10.109560 12.921070 4.302900
Si 11.010400 13.743300 3.249960
O 10.099860 10.821960 5.866700
Si 11.018710 9.552040 6.182080
O 8.234440 12.586610 6.082830
Si 6.928920 13.480250 6.300470
O 12.579230 9.987540 6.036980
O 6.928920 14.046400 7.782150
O 12.579230 9.987540 11.074980
O 6.928920 14.722300 10.327340
H 10.677780 13.213730 1.783900
H 1.278610 7.437260 3.517980
O 3.757980 6.602840 3.347700
H 3.748280 4.503730 1.783900
Si 11.018710 9.552040 1.144080
O 8.208110 16.147260 3.517980
O 10.687480 15.312840 3.347700
H 10.099860 17.074000 0.120860
Si 9.768630 16.582750 3.663080
O 12.579230 9.987540 0.998980
O 12.552900 13.548190 3.563830
H 10.099860 10.821960 0.828700
O 10.687480 9.060800 2.639860
Si 2.839130 7.872760 3.663080
Si 4.080900 5.033300 3.249960
O 5.623400 4.838190 3.563830
O 3.180060 4.211070 4.302900
Si 4.089210 16.582750 3.663080
Si 2.847440 13.743300 3.249960
H 1.304940 13.548190 3.563830
O 3.748280 12.921070 4.302900
Si 11.018710 7.872760 3.663080
Si 9.776940 5.033300 3.249960
O 8.234440 4.838190 3.563830
O 10.677780 4.211070 4.302900
O 12.579230 7.437260 3.517980
O 10.099860 6.602840 3.347700
H 10.687480 8.364000 0.120860
H 10.109560 4.503730 1.783900
O 5.649730 16.147260 3.517980
O 3.170360 15.312840 3.347700
H 3.757980 17.074000 0.120860
H 3.180060 13.213730 1.783900
Si 6.928920 15.276260 3.763840
Si 6.928920 3.944550 3.781470
Si 2.847440 3.681500 5.768960
H 1.278610 7.437260 8.555980
H 1.304940 3.876610 6.082830
O 3.757980 6.602840 8.385700
O 3.170360 8.364000 5.158860
O 3.748280 4.503730 6.821900
O 10.099860 17.074000 5.158860
O 10.687480 9.060800 7.677860
Si 2.839130 7.872760 8.701080
Si 4.080900 5.033300 8.287960
H 5.649730 1.277540 6.036980
O 5.623400 4.838190 8.601830
H 3.170360 2.111960 5.866700
O 3.180060 4.211070 9.340900
Si 4.089210 16.582750 8.701080
Si 2.847440 13.743300 8.287960
H 1.278610 9.987540 6.036980
H 1.304940 13.548190 8.601830
O 3.757980 10.821960 5.866700
O 3.170360 9.060800 7.677860
O 3.748280 12.921070 9.340900
Si 11.018710 7.872760 8.701080
Si 9.776940 5.033300 8.287960
H 8.208110 1.277540 6.036980
O 8.234440 4.838190 8.601830
H 10.687480 2.111960 5.866700
O 10.677780 4.211070 9.340900
Si 11.010400 3.681500 5.768960
O 12.579230 7.437260 8.555980
O 12.552900 3.876610 6.082830
O 10.099860 6.602840 8.385700
O 10.687480 8.364000 5.158860
O 10.109560 4.503730 6.821900
Si 2.839130 9.552040 6.182080
Si 4.080900 12.391500 5.768960
O 5.649730 16.147260 8.555980
O 5.623400 12.586610 6.082830
O 3.170360 15.312840 8.385700
O 3.757980 17.074000 5.158860
O 3.180060 13.213730 6.821900
O 6.928920 14.722300 5.289340
Si 6.928920 3.944550 8.819470
Si 6.928920 2.148540 6.282840
O 6.928920 3.378400 5.263150
O 6.928920 2.702500 7.808340
O 15.137610 7.437260 3.517980
O 17.616980 6.602840 3.347700
H 17.029360 8.364000 0.120860
H 17.607280 4.503730 1.783900
O 22.067110 16.147260 3.517980
O 24.546480 15.312840 3.347700
H 23.958860 17.074000 0.120860
H 24.536780 13.213730 1.783900
Si 23.627630 16.582750 3.663080
Si 24.869400 13.743300 3.249960
H 26.411900 13.548190 3.563830
O 23.968560 12.921070 4.302900
Si 16.698130 7.872760 3.663080
Si 17.939900 5.033300 3.249960
O 19.482400 4.838190 3.563830
O 17.039060 4.211070 4.302900
Si 17.948210 16.582750 3.663080
Si 16.706440 13.743300 3.249960
O 15.137610 9.987540 0.998980
O 15.163940 13.548190 3.563830
H 17.616980 10.821960 0.828700
O 17.029360 9.060800 2.639860
O 17.607280 12.921070 4.302900
Si 24.877710 7.872760 3.663080
Si 23.635940 5.033300 3.249960
O 22.093440 4.838190 3.563830
O 24.536780 4.211070 4.302900
H 26.438230 7.437260 3.517980
O 23.958860 6.602840 3.347700
H 23.968560 4.503730 1.783900
Si 16.698130 9.552040 1.144080
O 19.508730 16.147260 3.517980
O 17.029360 15.312840 3.347700
H 17.616980 17.074000 0.120860
H 17.039060 13.213730 1.783900
Si 13.858420 6.566260 3.763840
Si 20.787920 15.276260 3.763840
Si 13.858420 12.654550 3.781470
Si 13.858420 10.858540 1.244840
H 13.858420 12.088400 0.225150
O 13.858420 11.412500 2.770340
Si 20.787920 3.944550 3.781470
Si 16.706440 3.681500 5.768960
O 15.137610 7.437260 8.555980
O 15.163940 3.876610 6.082830
O 17.616980 6.602840 8.385700
O 17.029360 8.364000 5.158860
O 17.607280 4.503730 6.821900
Si 24.877710 9.552040 6.182080
Si 23.635940 12.391500 5.768960
O 22.067110 16.147260 8.555980
O 22.093440 12.586610 6.082830
O 24.546480 15.312840 8.385700
O 23.958860 17.074000 5.158860
O 24.536780 13.213730 6.821900
Si 23.627630 16.582750 8.701080
Si 24.869400 13.743300 8.287960
H 26.438230 9.987540 6.036980
H 26.411900 13.548190 8.601830
O 23.958860 10.821960 5.866700
O 24.546480 9.060800 7.677860
O 23.968560 12.921070 9.340900
Si 16.698130 7.872760 8.701080
Si 17.939900 5.033300 8.287960
H 19.508730 1.277540 6.036980
O 19.482400 4.838190 8.601830
H 17.029360 2.111960 5.866700
O 17.039060 4.211070 9.340900
Si 17.948210 16.582750 8.701080
O 15.137610 9.987540 6.036980
O 17.616980 10.821960 5.866700
O 17.029360 9.060800 7.677860
O 17.607280 12.921070 9.340900
Si 24.877710 7.872760 8.701080
Si 23.635940 5.033300 8.287960
H 22.067110 1.277540 6.036980
O 22.093440 4.838190 8.601830
H 24.546480 2.111960 5.866700
O 24.536780 4.211070 9.340900
Si 24.869400 3.681500 5.768960
H 26.438230 7.437260 8.555980
H 26.411900 3.876610 6.082830
O 23.958860 6.602840 8.385700
O 24.546480 8.364000 5.158860
O 23.968560 4.503730 6.821900
Si 16.698130 9.552040 6.182080
Si 17.939900 12.391500 5.768960
O 19.508730 16.147260 8.555980
O 19.482400 12.586610 6.082830
O 17.029360 15.312840 8.385700
O 17.616980 17.074000 5.158860
O 17.039060 13.213730 6.821900
Si 13.858420 4.770250 6.300470
Si 13.858420 6.566260 8.801840
O 13.858420 5.336400 7.782150
O 13.858420 6.012300 5.289340
Si 20.787920 13.480250 6.300470
Si 20.787920 15.276260 8.801840
O 20.787920 14.046400 7.782150
O 20.787920 14.722300 5.289340
O 13.858420 12.088400 5.263150
Si 20.787920 3.944550 8.819470
Si 20.787920 2.148540 6.282840
O 20.787920 3.378400 5.263150
O 20.787920 2.702500 7.808340
Si 4.089210 18.262050 1.144080
H 1.278610 24.857260 3.517980
O 3.757980 24.022840 3.347700
H 3.748280 21.923730 1.783900
Si 11.018710 26.972040 1.144080
H 10.687480 32.732840 3.347700
H 10.677780 30.633730 1.783900
Si 11.010400 31.163300 3.249960
O 12.579230 27.407540 0.998980
O 12.552900 30.968190 3.563830
H 10.099860 28.241960 0.828700
O 10.687480 26.480800 2.639860
O 10.109560 30.341070 4.302900
Si 2.839130 25.292760 3.663080
Si 4.080900 22.453300 3.249960
O 5.649730 18.697540 0.998980
O 5.623400 22.258190 3.563830
H 3.170360 19.531960 0.828700
O 3.757980 17.770800 2.639860
O 3.180060 21.631070 4.302900
Si 11.018710 25.292760 3.663080
Si 9.776940 22.453300 3.249960
O 8.208110 18.697540 0.998980
O 8.234440 22.258190 3.563830
H 10.687480 19.531960 0.828700
O 10.099860 17.770800 2.639860
O 10.677780 21.631070 4.302900
Si 9.768630 18.262050 1.144080
O 12.579230 24.857260 3.517980
O 10.099860 24.022840 3.347700
H 10.687480 25.784000 0.120860
H 10.109560 21.923730 1.783900
Si 6.928920 21.364550 3.781470
Si 6.928920 19.568540 1.244840
H 6.928920 20.798400 0.225150
O 6.928920 20.122500 2.770340
Si 4.089210 18.262050 6.182080
Si 2.847440 21.101500 5.768960
H 1.278610 24.857260 8.555980
H 1.304940 21.296610 6.082830
O 3.757980 24.022840 8.385700
O 3.170360 25.784000 5.158860
O 3.748280 21.923730 6.821900
Si 11.018710 26.972040 6.182080
Si 9.776940 29.811500 5.768960
H 8.208110 33.567270 8.555980
O 8.234440 30.006610 6.082830
H 10.687480 32.732840 8.385700
O 10.677780 30.633730 6.821900
Si 11.010400 31.163300 8.287960
O 12.579230 27.407540 6.036980
O 12.552900 30.968190 8.601830
O 10.099860 28.241960 5.866700
O 10.687480 26.480800 7.677860
O 10.109560 30.341070 9.340900
Si 2.839130 25.292760 8.701080
Si 4.080900 22.453300 8.287960
O 5.649730 18.697540 6.036980
O 5.623400 22.258190 8.601830
O 3.170360 19.531960 5.866700
O 3.757980 17.770800 7.677860
O 3.180060 21.631070 9.340900
Si 2.847440 31.163300 8.287960
H 1.278610 27.407540 6.036980
H 1.304940 30.968190 8.601830
O 3.757980 28.241960 5.866700
O 3.170360 26.480800 7.677860
O 3.748280 30.341070 9.340900
Si 11.018710 25.292760 8.701080
Si 9.776940 22.453300 8.287960
O 8.208110 18.697540 6.036980
O 8.234440 22.258190 8.601830
O 10.687480 19.531960 5.866700
O 10.677780 21.631070 9.340900
Si 11.010400 21.101500 5.768960
O 12.579230 24.857260 8.555980
O 12.552900 21.296610 6.082830
O 10.099860 24.022840 8.385700
O 10.687480 25.784000 5.158860
O 10.109560 21.923730 6.821900
Si 2.839130 26.972040 6.182080
Si 4.080900 29.811500 5.768960
H 5.649730 33.567270 8.555980
O 5.623400 30.006610 6.082830
H 3.170360 32.732840 8.385700
O 3.180060 30.633730 6.821900
Si 6.928920 30.900250 6.300470
Si 6.928920 32.696260 8.801840
O 6.928920 31.466400 7.782150
Si 6.928920 21.364550 8.819470
Si 6.928920 19.568540 6.282840
O 6.928920 20.798400 5.263150
O 6.928920 20.122500 7.808340
Si 17.948210 18.262050 1.144080
O 15.137610 24.857260 3.517980
O 17.616980 24.022840 3.347700
H 17.029360 25.784000 0.120860
H 17.607280 21.923730 1.783900
Si 16.698130 25.292760 3.663080
Si 17.939900 22.453300 3.249960
O 19.508730 18.697540 0.998980
O 19.482400 22.258190 3.563830
H 17.029360 19.531960 0.828700
O 17.616980 17.770800 2.639860
O 17.039060 21.631070 4.302900
Si 16.706440 31.163300 3.249960
O 15.137610 27.407540 0.998980
O 15.163940 30.968190 3.563830
H 17.616980 28.241960 0.828700
O 17.029360 26.480800 2.639860
O 17.607280 30.341070 4.302900
Si 24.877710 25.292760 3.663080
Si 23.635940 22.453300 3.249960
O 22.067110 18.697540 0.998980
O 22.093440 22.258190 3.563830
H 24.546480 19.531960 0.828700
O 23.958860 17.770800 2.639860
O 24.536780 21.631070 4.302900
Si 23.627630 18.262050 1.144080
H 26.438230 24.857260 3.517980
O 23.958860 24.022840 3.347700
H 23.968560 21.923730 1.783900
Si 16.698130 26.972040 1.144080
H 17.029360 32.732840 3.347700
H 17.039060 30.633730 1.783900
Si 13.858420 23.986260 3.763840
Si 13.858420 30.074550 3.781470
Si 13.858420 28.278540 1.244840
H 13.858420 29.508400 0.225150
O 13.858420 28.832500 2.770340
Si 20.787920 21.364550 3.781470
Si 20.787920 19.568540 1.244840
H 20.787920 20.798400 0.225150
O 20.787920 20.122500 2.770340
Si 17.948210 18.262050 6.182080
Si 16.706440 21.101500 5.768960
O 15.137610 24.857260 8.555980
O 15.163940 21.296610 6.082830
O 17.616980 24.022840 8.385700
O 17.029360 25.784000 5.158860
O 17.607280 21.923730 6.821900
Si 24.877710 26.972040 6.182080
Si 23.635940 29.811500 5.768960
H 22.067110 33.567270 8.555980
O 22.093440 30.006610 6.082830
H 24.546480 32.732840 8.385700
O 24.536780 30.633730 6.821900
Si 24.869400 31.163300 8.287960
H 26.438230 27.407540 6.036980
H 26.411900 30.968190 8.601830
O 23.958860 28.241960 5.866700
O 24.546480 26.480800 7.677860
O 23.968560 30.341070 9.340900
Si 16.698130 25.292760 8.701080
Si 17.939900 22.453300 8.287960
O 19.508730 18.697540 6.036980
O 19.482400 22.258190 8.601830
O 17.029360 19.531960 5.866700
O 17.616980 17.770800 7.677860
O 17.039060 21.631070 9.340900
Si 16.706440 31.163300 8.287960
O 15.137610 27.407540 6.036980
O 15.163940 30.968190 8.601830
O 17.616980 28.241960 5.866700
O 17.029360 26.480800 7.677860
O 17.607280 30.341070 9.340900
Si 24.877710 25.292760 8.701080
Si 23.635940 22.453300 8.287960
O 22.067110 18.697540 6.036980
O 22.093440 22.258190 8.601830
O 24.546480 19.531960 5.866700
O 23.958860 17.770800 7.677860
O 24.536780 21.631070 9.340900
Si 23.627630 18.262050 6.182080
Si 24.869400 21.101500 5.768960
H 26.438230 24.857260 8.555980
H 26.411900 21.296610 6.082830
O 23.958860 24.022840 8.385700
O 24.546480 25.784000 5.158860
O 23.968560 21.923730 6.821900
Si 16.698130 26.972040 6.182080
Si 17.939900 29.811500 5.768960
H 19.508730 33.567270 8.555980
O 19.482400 30.006610 6.082830
H 17.029360 32.732840 8.385700
O 17.039060 30.633730 6.821900
Si 13.858420 22.190250 6.300470
Si 13.858420 23.986260 8.801840
O 13.858420 22.756400 7.782150
O 13.858420 23.432300 5.289340
Si 20.787920 30.900250 6.300470
Si 20.787920 32.696260 8.801840
O 20.787920 31.466400 7.782150
Si 13.858420 30.074550 8.819470
Si 13.858420 28.278540 6.282840
O 13.858420 29.508400 5.263150
O 13.858420 28.832500 7.808340
Si 20.787920 21.364550 8.819470
Si 20.787920 19.568540 6.282840
O 20.787920 20.798400 5.263150
O 20.787920 20.122500 7.808340
Si 2.847440 3.681500 10.806960
H 1.278610 7.437260 13.593980
H 1.304940 3.876610 11.120830
O 3.757980 6.602840 13.423700
O 3.170360 8.364000 10.196860
O 3.748280 4.503730 11.859900
O 8.208110 16.147260 13.593980
O 10.687480 15.312840 13.423700
Si 9.768630 16.582750 13.739080
O 12.552900 13.548190 13.639830
O 10.687480 9.060800 12.715860
O 10.109560 12.921070 14.378900
Si 2.839130 7.872760 13.739080
Si 4.080900 5.033300 13.325960
H 5.649730 1.277540 11.074980
O 5.623400 4.838190 13.639830
H 3.170360 2.111960 10.904700
Si 4.089210 16.582750 13.739080
Si 2.847440 13.743300 13.325960
H 1.278610 9.987540 11.074980
H 1.304940 13.548190 13.639830
O 3.757980 10.821960 10.904700
O 3.170360 9.060800 12.715860
O 3.748280 12.921070 14.378900
Si 11.018710 7.872760 13.739080
Si 9.776940 5.033300 13.325960
H 8.208110 1.277540 11.074980
O 8.234440 4.838190 13.639830
H 10.687480 2.111960 10.904700
O 10.677780 4.211070 14.378900
Si 11.010400 3.681500 10.806960
O 12.579230 7.437260 13.593980
O 12.552900 3.876610 11.120830
O 10.099860 6.602840 13.423700
O 10.687480 8.364000 10.196860
O 10.109560 4.503730 11.859900
Si 2.839130 9.552040 11.220080
Si 4.080900 12.391500 10.806960
O 5.649730 16.147260 13.593980
O 5.623400 12.586610 11.120830
O 3.170360 15.312840 13.423700
O 3.757980 17.074000 10.196860
O 3.180060 13.213730 11.859900
Si 6.928920 15.276260 13.839840
O 6.928920 14.046400 12.820150
Si 6.928920 3.944550 13.857470
Si 6.928920 2.148540 11.320840
O 6.928920 3.378400 10.301150
O 6.928920 2.702500 12.846340
O 3.170360 8.364000 15.234860
Si 11.018710 9.552040 16.258080
Si 9.776940 12.391500 15.844960
O 8.234440 12.586610 16.158830
O 10.099860 17.074000 15.234860
O 12.579230 9.987540 16.112980
O 10.099860 10.821960 15.942700
H 10.687480 9.060800 17.753860
H 1.278610 9.987540 16.112980
O 3.757980 10.821960 15.942700
H 3.170360 9.060800 17.753860
H 10.687480 2.111960 15.942700
Si 11.010400 3.681500 15.844960
O 12.552900 3.876610 16.158830
O 10.687480 8.364000 15.234860
Si 2.839130 9.552040 16.258080
Si 4.080900 12.391500 15.844960
O 5.623400 12.586610 16.158830
O 3.757980 17.074000 15.234860
Si 6.928920 13.480250 16.376470
H 6.928920 14.046400 17.858150
O 6.928920 14.722300 15.365340
Si 16.706440 3.681500 10.806960
O 15.137610 7.437260 13.593980
O 15.163940 3.876610 11.120830
O 17.616980 6.602840 13.423700
O 17.029360 8.364000 10.196860
O 17.607280 4.503730 11.859900
Si 24.877710 9.552040 11.220080
Si 23.635940 12.391500 10.806960
O 22.067110 16.147260 13.593980
O 22.093440 12.586610 11.120830
O 24.546480 15.312840 13.423700
O 23.958860 17.074000 10.196860
O 24.536780 13.213730 11.859900
Si 23.627630 16.582750 13.739080
Si 24.869400 13.743300 13.325960
H 26.438230 9.987540 11.074980
H 26.411900 13.548190 13.639830
O 23.958860 10.821960 10.904700
O 24.546480 9.060800 12.715860
O 23.968560 12.921070 14.378900
Si 16.698130 7.872760 13.739080
Si 17.939900 5.033300 13.325960
H 19.508730 1.277540 11.074980
O 19.482400 4.838190 13.639830
H 17.029360 2.111960 10.904700
O 17.039060 4.211070 14.378900
Si 17.948210 16.582750 13.739080
Si 16.706440 13.743300 13.325960
O 15.137610 9.987540 11.074980
O 15.163940 13.548190 13.639830
O 17.616980 10.821960 10.904700
O 17.029360 9.060800 12.715860
O 17.607280 12.921070 14.378900
Si 24.877710 7.872760 13.739080
Si 23.635940 5.033300 13.325960
H 22.067110 1.277540 11.074980
O 22.093440 4.838190 13.639830
H 24.546480 2.111960 10.904700
Si 24.869400 3.681500 10.806960
H 26.438230 7.437260 13.593980
H 26.411900 3.876610 11.120830
O 23.958860 6.602840 13.423700
O 24.546480 8.364000 10.196860
O 23.968560 4.503730 11.859900
Si 16.698130 9.552040 11.220080
Si 17.939900 12.391500 10.806960
O 19.508730 16.147260 13.593980
O 19.482400 12.586610 11.120830
O 17.029360 15.312840 13.423700
O 17.616980 17.074000 10.196860
O 17.039060 13.213730 11.859900
Si 13.858420 4.770250 11.338470
Si 13.858420 6.566260 13.839840
O 13.858420 5.336400 12.820150
O 13.858420 6.012300 10.327340
Si 20.787920 13.480250 11.338470
Si 20.787920 15.276260 13.839840
O 20.787920 14.046400 12.820150
O 20.787920 14.722300 10.327340
Si 13.858420 12.654550 13.857470
O 13.858420 11.412500 12.846340
Si 20.787920 3.944550 13.857470
Si 20.787920 2.148540 11.320840
O 20.787920 3.378400 10.301150
O 20.787920 2.702500 12.846340
Si 16.706440 3.681500 15.844960
O 15.163940 3.876610 16.158830
O 17.029360 8.364000 15.234860
Si 24.877710 9.552040 16.258080
Si 23.635940 12.391500 15.844960
O 22.093440 12.586610 16.158830
O 23.958860 17.074000 15.234860
H 26.438230 9.987540 16.112980
O 23.958860 10.821960 15.942700
H 24.546480 9.060800 17.753860
H 17.029360 2.111960 15.942700
O 15.137610 9.987540 16.112980
O 17.616980 10.821960 15.942700
H 17.029360 9.060800 17.753860
O 24.546480 8.364000 15.234860
Si 16.698130 9.552040 16.258080
Si 17.939900 12.391500 15.844960
O 19.482400 12.586610 16.158830
O 17.616980 17.074000 15.234860
Si 13.858420 4.770250 16.376470
H 13.858420 5.336400 17.858150
O 13.858420 6.012300 15.365340
Si 20.787920 13.480250 16.376470
H 20.787920 14.046400 17.858150
O 20.787920 14.722300 15.365340
Si 13.858420 10.858540 16.358840
O 13.858420 12.088400 15.339150
H 13.858420 11.412500 17.884340
Si 4.089210 18.262050 11.220080
Si 2.847440 21.101500 10.806960
H 1.278610 24.857260 13.593980
H 1.304940 21.296610 11.120830
O 3.757980 24.022840 13.423700
O 3.170360 25.784000 10.196860
O 3.748280 21.923730 11.859900
Si 11.018710 26.972040 11.220080
Si 9.776940 29.811500 10.806960
H 8.208110 33.567270 13.593980
O 8.234440 30.006610 11.120830
H 10.687480 32.732840 13.423700
O 10.677780 30.633730 11.859900
Si 11.010400 31.163300 13.325960
O 12.579230 27.407540 11.074980
O 12.552900 30.968190 13.639830
O 10.099860 28.241960 10.904700
O 10.687480 26.480800 12.715860
O 10.109560 30.341070 14.378900
Si 2.839130 25.292760 13.739080
Si 4.080900 22.453300 13.325960
O 5.649730 18.697540 11.074980
O 5.623400 22.258190 13.639830
O 3.170360 19.531960 10.904700
O 3.757980 17.770800 12.715860
O 3.180060 21.631070 14.378900
Si 2.847440 31.163300 13.325960
H 1.278610 27.407540 11.074980
H 1.304940 30.968190 13.639830
O 3.757980 28.241960 10.904700
O 3.170360 26.480800 12.715860
O 3.748280 30.341070 14.378900
Si 11.018710 25.292760 13.739080
Si 9.776940 22.453300 13.325960
O 8.208110 18.697540 11.074980
O 8.234440 22.258190 13.639830
O 10.687480 19.531960 10.904700
O 10.099860 17.770800 12.715860
O 10.677780 21.631070 14.378900
Si 11.010400 21.101500 10.806960
O 12.579230 24.857260 13.593980
O 12.552900 21.296610 11.120830
O 10.099860 24.022840 13.423700
O 10.687480 25.784000 10.196860
O 10.109560 21.923730 11.859900
Si 2.839130 26.972040 11.220080
Si 4.080900 29.811500 10.806960
H 5.649730 33.567270 13.593980
O 5.623400 30.006610 11.120830
H 3.170360 32.732840 13.423700
O 3.180060 30.633730 11.859900
Si 6.928920 30.900250 11.338470
Si 6.928920 32.696260 13.839840
O 6.928920 31.466400 12.820150
O 6.928920 32.142300 10.327340
Si 6.928920 21.364550 13.857470
Si 6.928920 19.568540 11.320840
O 6.928920 20.798400 10.301150
O 6.928920 20.122500 12.846340
Si 4.089210 18.262050 16.258080
Si 2.847440 21.101500 15.844960
H 1.304940 21.296610 16.158830
O 3.170360 25.784000 15.234860
Si 11.018710 26.972040 16.258080
Si 9.776940 29.811500 15.844960
O 8.234440 30.006610 16.158830
O 12.579230 27.407540 16.112980
O 10.099860 28.241960 15.942700
H 10.687480 26.480800 17.753860
O 5.649730 18.697540 16.112980
O 3.170360 19.531960 15.942700
H 3.757980 17.770800 17.753860
H 1.278610 27.407540 16.112980
O 3.757980 28.241960 15.942700
H 3.170360 26.480800 17.753860
O 8.208110 18.697540 16.112980
O 10.687480 19.531960 15.942700
H 10.099860 17.770800 17.753860
Si 9.768630 18.262050 16.258080
Si 11.010400 21.101500 15.844960
O 12.552900 21.296610 16.158830
O 10.687480 25.784000 15.234860
Si 2.839130 26.972040 16.258080
Si 4.080900 29.811500 15.844960
O 5.623400 30.006610 16.158830
Si 6.928920 30.900250 16.376470
H 6.928920 31.466400 17.858150
O 6.928920 32.142300 15.365340
Si 6.928920 19.568540 16.358840
O 6.928920 20.798400 15.339150
H 6.928920 20.122500 17.884340
Si 17.948210 18.262050 11.220080
Si 16.706440 21.101500 10.806960
O 15.137610 24.857260 13.593980
O 15.163940 21.296610 11.120830
O 17.616980 24.022840 13.423700
O 17.029360 25.784000 10.196860
O 17.607280 21.923730 11.859900
Si 24.877710 26.972040 11.220080
Si 23.635940 29.811500 10.806960
H 22.067110 33.567270 13.593980
O 22.093440 30.006610 11.120830
H 24.546480 32.732840 13.423700
O 24.536780 30.633730 11.859900
Si 24.869400 31.163300 13.325960
H 26.438230 27.407540 11.074980
H 26.411900 30.968190 13.639830
O 23.958860 28.241960 10.904700
O 24.546480 26.480800 12.715860
O 23.968560 30.341070 14.378900
Si 16.698130 25.292760 13.739080
Si 17.939900 22.453300 13.325960
O 19.508730 18.697540 11.074980
O 19.482400 22.258190 13.639830
O 17.029360 19.531960 10.904700
O 17.616980 17.770800 12.715860
O 17.039060 21.631070 14.378900
Si 16.706440 31.163300 13.325960
O 15.137610 27.407540 11.074980
O 15.163940 30.968190 13.639830
O 17.616980 28.241960 10.904700
O 17.029360 26.480800 12.715860
O 17.607280 30.341070 14.378900
Si 24.877710 25.292760 13.739080
Si 23.635940 22.453300 13.325960
O 22.067110 18.697540 11.074980
O 22.093440 22.258190 13.639830
O 24.546480 19.531960 10.904700
O 23.958860 17.770800 12.715860
O 24.536780 21.631070 14.378900
Si 23.627630 18.262050 11.220080
Si 24.869400 21.101500 10.806960
H 26.438230 24.857260 13.593980
H 26.411900 21.296610 11.120830
O 23.958860 24.022840 13.423700
O 24.546480 25.784000 10.196860
O 23.968560 21.923730 11.859900
Si 16.698130 26.972040 11.220080
Si 17.939900 29.811500 10.806960
H 19.508730 33.567270 13.593980
O 19.482400 30.006610 11.120830
H 17.029360 32.732840 13.423700
O 17.039060 30.633730 11.859900
Si 13.858420 22.190250 11.338470
Si 13.858420 23.986260 13.839840
O 13.858420 22.756400 12.820150
O 13.858420 23.432300 10.327340
Si 20.787920 30.900250 11.338470
Si 20.787920 32.696260 13.839840
O 20.787920 31.466400 12.820150
O 20.787920 32.142300 10.327340
Si 13.858420 30.074550 13.857470
Si 13.858420 28.278540 11.320840
O 13.858420 29.508400 10.301150
O 13.858420 28.832500 12.846340
Si 20.787920 21.364550 13.857470
Si 20.787920 19.568540 11.320840
O 20.787920 20.798400 10.301150
O 20.787920 20.122500 12.846340
Si 17.948210 18.262050 16.258080
Si 16.706440 21.101500 15.844960
O 15.163940 21.296610 16.158830
O 17.029360 25.784000 15.234860
Si 24.877710 26.972040 16.258080
Si 23.635940 29.811500 15.844960
O 22.093440 30.006610 16.158830
H 26.438230 27.407540 16.112980
O 23.958860 28.241960 15.942700
H 24.546480 26.480800 17.753860
O 19.508730 18.697540 16.112980
O 17.029360 19.531960 15.942700
H 17.616980 17.770800 17.753860
O 15.137610 27.407540 16.112980
O 17.616980 28.241960 15.942700
H 17.029360 26.480800 17.753860
O 22.067110 18.697540 16.112980
O 24.546480 19.531960 15.942700
H 23.958860 17.770800 17.753860
Si 23.627630 18.262050 16.258080
Si 24.869400 21.101500 15.844960
H 26.411900 21.296610 16.158830
O 24.546480 25.784000 15.234860
Si 16.698130 26.972040 16.258080
Si 17.939900 29.811500 15.844960
O 19.482400 30.006610 16.158830
Si 13.858420 22.190250 16.376470
H 13.858420 22.756400 17.858150
O 13.858420 23.432300 15.365340
Si 20.787920 30.900250 16.376470
H 20.787920 31.466400 17.858150
O 20.787920 32.142300 15.365340
Si 13.858420 28.278540 16.358840
O 13.858420 29.508400 15.339150
H 13.858420 28.832500 17.884340
Si 20.787920 19.568540 16.358840
O 20.787920 20.798400 15.339150
H 20.787920 20.122500 17.884340
H 24.424530 30.543690 16.771470
H 17.151310 30.543690 16.771470
H 10.565530 30.543690 16.771470
H 3.292310 30.543690 16.771470
H 3.292310 13.123690 16.771470
H 10.221810 21.833690 16.771470
H 3.636030 21.833690 16.771470
H 24.080810 21.833690 16.771470
H 17.495030 21.833690 16.771470
H 24.424530 13.123690 16.771470
H 17.151310 13.123690 16.771470
H 10.565530 13.123690 16.771470
H 3.292310 4.301110 14.252470
H 10.221810 4.413690 16.771470
H 17.495030 4.413690 16.771470
H 6.928920 3.439920 15.184780
H 24.424530 4.301110 14.252470
H 20.787920 3.439920 15.184780
H 20.787920 2.872140 2.850690
H 24.626110 8.937510 2.757870
H 20.787920 31.972660 5.369690
H 23.937970 30.301530 4.470860
H 24.626110 26.357510 2.757870
H 13.858420 22.884330 2.868210
H 20.787920 14.174330 2.868210
H 6.928920 2.872140 2.850690
H 13.858420 5.464330 2.868210
H 3.090730 8.937510 2.757870
H 6.928920 14.174330 2.868210
H 3.090730 26.357510 2.757870
H 3.778870 30.301530 4.470860
H 6.928920 31.972660 5.369690
